*SPEF "ieee 1481-1999"
*DESIGN "controller"
*DATE "00:46:43 Sunday November 16, 2025"
*VENDOR "The OpenROAD Project"
*PROGRAM "OpenROAD"
*VERSION "edf00dff99f6c40d67a30c0e22a8191c5d2ed9d6"
*DESIGN_FLOW "NAME_SCOPE LOCAL" "PIN_CAP NONE"
*DIVIDER /
*DELIMITER :
*BUS_DELIMITER []
*T_UNIT 1 NS
*C_UNIT 1 PF
*R_UNIT 1 OHM
*L_UNIT 1 HENRY

*NAME_MAP
*3 adc_out[0]
*4 adc_out[1]
*5 adc_out[2]
*6 adc_out[3]
*7 adc_out[4]
*8 adc_out[5]
*9 adc_out[6]
*10 adc_out[7]
*11 clk
*12 comp
*13 dac_in[0]
*14 dac_in[1]
*15 dac_in[2]
*16 dac_in[3]
*17 dac_in[4]
*18 dac_in[5]
*19 dac_in[6]
*20 dac_in[7]
*21 rst_n
*22 _000_
*23 _001_
*24 _002_
*25 _003_
*26 _004_
*27 _005_
*28 _006_
*29 _007_
*30 _008_
*31 _009_
*32 _010_
*33 _011_
*34 _012_
*35 _013_
*36 _014_
*37 _015_
*38 _016_
*39 _017_
*40 _018_
*41 _019_
*42 _020_
*43 _021_
*44 _022_
*45 _023_
*46 _024_
*47 _025_
*48 _026_
*49 _027_
*50 _028_
*51 _029_
*52 _030_
*53 _031_
*54 _032_
*55 _033_
*56 _034_
*57 _035_
*58 _036_
*59 _037_
*60 _038_
*61 _039_
*62 _040_
*63 _041_
*64 _042_
*65 _043_
*66 _044_
*67 _045_
*68 _046_
*69 _047_
*70 _048_
*71 _049_
*72 _050_
*73 _051_
*74 clknet_0_clk
*75 clknet_1_0__leaf_clk
*76 clknet_1_1__leaf_clk
*77 count\[0\]
*78 count\[1\]
*79 count\[2\]
*80 count\[3\]
*81 net1
*82 net10
*83 net11
*84 net12
*85 net13
*86 net14
*87 net15
*88 net16
*89 net17
*90 net18
*91 net19
*92 net2
*93 net20
*94 net21
*95 net22
*96 net23
*97 net24
*98 net25
*99 net26
*100 net27
*101 net28
*102 net29
*103 net3
*104 net30
*105 net31
*106 net32
*107 net33
*108 net34
*109 net4
*110 net5
*111 net6
*112 net7
*113 net8
*114 net9
*115 ANTENNA_1
*116 ANTENNA_2
*117 ANTENNA_3
*118 FILLER_0_109
*119 FILLER_0_113
*120 FILLER_0_125
*121 FILLER_0_137
*122 FILLER_0_141
*123 FILLER_0_15
*124 FILLER_0_153
*125 FILLER_0_165
*126 FILLER_0_169
*127 FILLER_0_181
*128 FILLER_0_193
*129 FILLER_0_197
*130 FILLER_0_209
*131 FILLER_0_221
*132 FILLER_0_225
*133 FILLER_0_237
*134 FILLER_0_247
*135 FILLER_0_251
*136 FILLER_0_253
*137 FILLER_0_27
*138 FILLER_0_277
*139 FILLER_0_281
*140 FILLER_0_29
*141 FILLER_0_3
*142 FILLER_0_41
*143 FILLER_0_53
*144 FILLER_0_57
*145 FILLER_0_69
*146 FILLER_0_81
*147 FILLER_0_85
*148 FILLER_0_97
*149 FILLER_1_113
*150 FILLER_1_125
*151 FILLER_1_142
*152 FILLER_1_146
*153 FILLER_1_15
*154 FILLER_1_153
*155 FILLER_1_165
*156 FILLER_1_169
*157 FILLER_1_186
*158 FILLER_1_198
*159 FILLER_1_210
*160 FILLER_1_222
*161 FILLER_1_225
*162 FILLER_1_233
*163 FILLER_1_259
*164 FILLER_1_27
*165 FILLER_1_279
*166 FILLER_1_281
*167 FILLER_1_3
*168 FILLER_1_39
*169 FILLER_1_51
*170 FILLER_1_55
*171 FILLER_1_57
*172 FILLER_1_69
*173 FILLER_1_81
*174 FILLER_1_93
*175 FILLER_2_114
*176 FILLER_2_126
*177 FILLER_2_130
*178 FILLER_2_139
*179 FILLER_2_15
*180 FILLER_2_165
*181 FILLER_2_183
*182 FILLER_2_195
*183 FILLER_2_197
*184 FILLER_2_209
*185 FILLER_2_221
*186 FILLER_2_233
*187 FILLER_2_245
*188 FILLER_2_251
*189 FILLER_2_253
*190 FILLER_2_27
*191 FILLER_2_281
*192 FILLER_2_29
*193 FILLER_2_3
*194 FILLER_2_41
*195 FILLER_2_53
*196 FILLER_2_65
*197 FILLER_2_77
*198 FILLER_2_83
*199 FILLER_3_108
*200 FILLER_3_113
*201 FILLER_3_125
*202 FILLER_3_133
*203 FILLER_3_139
*204 FILLER_3_15
*205 FILLER_3_151
*206 FILLER_3_159
*207 FILLER_3_166
*208 FILLER_3_177
*209 FILLER_3_189
*210 FILLER_3_201
*211 FILLER_3_212
*212 FILLER_3_225
*213 FILLER_3_237
*214 FILLER_3_249
*215 FILLER_3_27
*216 FILLER_3_276
*217 FILLER_3_281
*218 FILLER_3_3
*219 FILLER_3_39
*220 FILLER_3_51
*221 FILLER_3_55
*222 FILLER_3_57
*223 FILLER_3_69
*224 FILLER_3_81
*225 FILLER_3_89
*226 FILLER_4_109
*227 FILLER_4_121
*228 FILLER_4_131
*229 FILLER_4_139
*230 FILLER_4_141
*231 FILLER_4_15
*232 FILLER_4_158
*233 FILLER_4_170
*234 FILLER_4_182
*235 FILLER_4_194
*236 FILLER_4_214
*237 FILLER_4_226
*238 FILLER_4_248
*239 FILLER_4_253
*240 FILLER_4_265
*241 FILLER_4_27
*242 FILLER_4_273
*243 FILLER_4_29
*244 FILLER_4_3
*245 FILLER_4_41
*246 FILLER_4_53
*247 FILLER_4_65
*248 FILLER_4_77
*249 FILLER_4_83
*250 FILLER_4_85
*251 FILLER_4_97
*252 FILLER_5_105
*253 FILLER_5_111
*254 FILLER_5_113
*255 FILLER_5_121
*256 FILLER_5_131
*257 FILLER_5_143
*258 FILLER_5_167
*259 FILLER_5_169
*260 FILLER_5_19
*261 FILLER_5_199
*262 FILLER_5_223
*263 FILLER_5_225
*264 FILLER_5_233
*265 FILLER_5_252
*266 FILLER_5_262
*267 FILLER_5_279
*268 FILLER_5_281
*269 FILLER_5_31
*270 FILLER_5_43
*271 FILLER_5_55
*272 FILLER_5_57
*273 FILLER_5_69
*274 FILLER_5_7
*275 FILLER_5_81
*276 FILLER_6_102
*277 FILLER_6_114
*278 FILLER_6_139
*279 FILLER_6_141
*280 FILLER_6_149
*281 FILLER_6_15
*282 FILLER_6_162
*283 FILLER_6_172
*284 FILLER_6_181
*285 FILLER_6_193
*286 FILLER_6_200
*287 FILLER_6_219
*288 FILLER_6_231
*289 FILLER_6_243
*290 FILLER_6_269
*291 FILLER_6_27
*292 FILLER_6_29
*293 FILLER_6_3
*294 FILLER_6_41
*295 FILLER_6_53
*296 FILLER_6_65
*297 FILLER_6_77
*298 FILLER_6_83
*299 FILLER_6_85
*300 FILLER_7_103
*301 FILLER_7_111
*302 FILLER_7_113
*303 FILLER_7_121
*304 FILLER_7_140
*305 FILLER_7_15
*306 FILLER_7_169
*307 FILLER_7_180
*308 FILLER_7_185
*309 FILLER_7_197
*310 FILLER_7_215
*311 FILLER_7_223
*312 FILLER_7_225
*313 FILLER_7_233
*314 FILLER_7_245
*315 FILLER_7_253
*316 FILLER_7_263
*317 FILLER_7_27
*318 FILLER_7_285
*319 FILLER_7_3
*320 FILLER_7_39
*321 FILLER_7_51
*322 FILLER_7_55
*323 FILLER_7_57
*324 FILLER_7_69
*325 FILLER_7_77
*326 FILLER_8_106
*327 FILLER_8_118
*328 FILLER_8_141
*329 FILLER_8_15
*330 FILLER_8_153
*331 FILLER_8_158
*332 FILLER_8_166
*333 FILLER_8_189
*334 FILLER_8_195
*335 FILLER_8_197
*336 FILLER_8_201
*337 FILLER_8_218
*338 FILLER_8_230
*339 FILLER_8_248
*340 FILLER_8_261
*341 FILLER_8_27
*342 FILLER_8_287
*343 FILLER_8_29
*344 FILLER_8_3
*345 FILLER_8_41
*346 FILLER_8_53
*347 FILLER_8_65
*348 FILLER_8_77
*349 FILLER_8_83
*350 FILLER_8_85
*351 FILLER_8_89
*352 FILLER_9_103
*353 FILLER_9_111
*354 FILLER_9_113
*355 FILLER_9_125
*356 FILLER_9_13
*357 FILLER_9_130
*358 FILLER_9_138
*359 FILLER_9_141
*360 FILLER_9_153
*361 FILLER_9_165
*362 FILLER_9_173
*363 FILLER_9_185
*364 FILLER_9_193
*365 FILLER_9_197
*366 FILLER_9_203
*367 FILLER_9_208
*368 FILLER_9_220
*369 FILLER_9_225
*370 FILLER_9_233
*371 FILLER_9_248
*372 FILLER_9_25
*373 FILLER_9_253
*374 FILLER_9_278
*375 FILLER_9_281
*376 FILLER_9_286
*377 FILLER_9_29
*378 FILLER_9_41
*379 FILLER_9_47
*380 FILLER_9_52
*381 FILLER_9_57
*382 FILLER_9_69
*383 FILLER_9_7
*384 FILLER_9_81
*385 FILLER_9_85
*386 FILLER_9_91
*387 PHY_EDGE_ROW_0_Left_10
*388 PHY_EDGE_ROW_0_Right_0
*389 PHY_EDGE_ROW_1_Left_11
*390 PHY_EDGE_ROW_1_Right_1
*391 PHY_EDGE_ROW_2_Left_12
*392 PHY_EDGE_ROW_2_Right_2
*393 PHY_EDGE_ROW_3_Left_13
*394 PHY_EDGE_ROW_3_Right_3
*395 PHY_EDGE_ROW_4_Left_14
*396 PHY_EDGE_ROW_4_Right_4
*397 PHY_EDGE_ROW_5_Left_15
*398 PHY_EDGE_ROW_5_Right_5
*399 PHY_EDGE_ROW_6_Left_16
*400 PHY_EDGE_ROW_6_Right_6
*401 PHY_EDGE_ROW_7_Left_17
*402 PHY_EDGE_ROW_7_Right_7
*403 PHY_EDGE_ROW_8_Left_18
*404 PHY_EDGE_ROW_8_Right_8
*405 PHY_EDGE_ROW_9_Left_19
*406 PHY_EDGE_ROW_9_Right_9
*407 TAP_TAPCELL_ROW_0_20
*408 TAP_TAPCELL_ROW_0_21
*409 TAP_TAPCELL_ROW_0_22
*410 TAP_TAPCELL_ROW_0_23
*411 TAP_TAPCELL_ROW_0_24
*412 TAP_TAPCELL_ROW_0_25
*413 TAP_TAPCELL_ROW_0_26
*414 TAP_TAPCELL_ROW_0_27
*415 TAP_TAPCELL_ROW_0_28
*416 TAP_TAPCELL_ROW_0_29
*417 TAP_TAPCELL_ROW_1_30
*418 TAP_TAPCELL_ROW_1_31
*419 TAP_TAPCELL_ROW_1_32
*420 TAP_TAPCELL_ROW_1_33
*421 TAP_TAPCELL_ROW_1_34
*422 TAP_TAPCELL_ROW_2_35
*423 TAP_TAPCELL_ROW_2_36
*424 TAP_TAPCELL_ROW_2_37
*425 TAP_TAPCELL_ROW_2_38
*426 TAP_TAPCELL_ROW_2_39
*427 TAP_TAPCELL_ROW_3_40
*428 TAP_TAPCELL_ROW_3_41
*429 TAP_TAPCELL_ROW_3_42
*430 TAP_TAPCELL_ROW_3_43
*431 TAP_TAPCELL_ROW_3_44
*432 TAP_TAPCELL_ROW_4_45
*433 TAP_TAPCELL_ROW_4_46
*434 TAP_TAPCELL_ROW_4_47
*435 TAP_TAPCELL_ROW_4_48
*436 TAP_TAPCELL_ROW_4_49
*437 TAP_TAPCELL_ROW_5_50
*438 TAP_TAPCELL_ROW_5_51
*439 TAP_TAPCELL_ROW_5_52
*440 TAP_TAPCELL_ROW_5_53
*441 TAP_TAPCELL_ROW_5_54
*442 TAP_TAPCELL_ROW_6_55
*443 TAP_TAPCELL_ROW_6_56
*444 TAP_TAPCELL_ROW_6_57
*445 TAP_TAPCELL_ROW_6_58
*446 TAP_TAPCELL_ROW_6_59
*447 TAP_TAPCELL_ROW_7_60
*448 TAP_TAPCELL_ROW_7_61
*449 TAP_TAPCELL_ROW_7_62
*450 TAP_TAPCELL_ROW_7_63
*451 TAP_TAPCELL_ROW_7_64
*452 TAP_TAPCELL_ROW_8_65
*453 TAP_TAPCELL_ROW_8_66
*454 TAP_TAPCELL_ROW_8_67
*455 TAP_TAPCELL_ROW_8_68
*456 TAP_TAPCELL_ROW_8_69
*457 TAP_TAPCELL_ROW_9_70
*458 TAP_TAPCELL_ROW_9_71
*459 TAP_TAPCELL_ROW_9_72
*460 TAP_TAPCELL_ROW_9_73
*461 TAP_TAPCELL_ROW_9_74
*462 TAP_TAPCELL_ROW_9_75
*463 TAP_TAPCELL_ROW_9_76
*464 TAP_TAPCELL_ROW_9_77
*465 TAP_TAPCELL_ROW_9_78
*466 TAP_TAPCELL_ROW_9_79
*467 _052_
*468 _053_
*469 _054_
*470 _055_
*471 _056_
*472 _057_
*473 _058_
*474 _059_
*475 _060_
*476 _061_
*477 _062_
*478 _063_
*479 _064_
*480 _065_
*481 _066_
*482 _067_
*483 _068_
*484 _069_
*485 _070_
*486 _071_
*487 _072_
*488 _073_
*489 _074_
*490 _075_
*491 _076_
*492 _077_
*493 _078_
*494 _079_
*495 _080_
*496 _081_
*497 _082_
*498 _083_
*499 _084_
*500 _085_
*501 _086_
*502 _087_
*503 _088_
*504 _089_
*505 _090_
*506 _091_
*507 _092_
*508 _093_
*509 _094_
*510 _095_
*511 _096_
*512 _097_
*513 _098_
*514 _099_
*515 _100_
*516 _101_
*517 _102_
*518 _103_
*519 _104_
*520 _105_
*521 _106_
*522 _107_
*523 _108_
*524 _109_
*525 _110_
*526 _111_
*527 _112_
*528 _113_
*529 _114_
*530 _115_
*531 _116_
*532 _117_
*533 _118_
*534 _119_
*535 _120_
*536 _121_
*537 _122_
*538 _123_
*539 clkbuf_0_clk
*540 clkbuf_1_0__f_clk
*541 clkbuf_1_1__f_clk
*542 clkload0
*543 fanout19
*544 fanout20
*545 fanout21
*546 hold1
*547 hold10
*548 hold11
*549 hold12
*550 hold13
*551 hold2
*552 hold3
*553 hold4
*554 hold5
*555 hold6
*556 hold7
*557 hold8
*558 hold9
*559 input1
*560 input2
*561 output10
*562 output11
*563 output12
*564 output13
*565 output14
*566 output15
*567 output16
*568 output17
*569 output18
*570 output3
*571 output4
*572 output5
*573 output6
*574 output7
*575 output8
*576 output9

*PORTS
adc_out[0] O
adc_out[1] O
adc_out[2] O
adc_out[3] O
adc_out[4] O
adc_out[5] O
adc_out[6] O
adc_out[7] O
clk I
comp I
dac_in[0] O
dac_in[1] O
dac_in[2] O
dac_in[3] O
dac_in[4] O
dac_in[5] O
dac_in[6] O
dac_in[7] O
rst_n I

*D_NET *3 0.00122397
*CONN
*P adc_out[0] O
*I *570:X O *D sky130_fd_sc_hd__buf_2
*CAP
1 adc_out[0] 0.000611987
2 *570:X 0.000611987
3 adc_out[0] adc_out[1] 0
*RES
1 *570:X adc_out[0] 21.457 
*END

*D_NET *4 0.00233007
*CONN
*P adc_out[1] O
*I *571:X O *D sky130_fd_sc_hd__buf_2
*CAP
1 adc_out[1] 0.000791473
2 *571:X 0.000791473
3 adc_out[1] adc_out[2] 0
4 adc_out[1] *508:A1 0.000144773
5 adc_out[1] *570:A 0.000139482
6 adc_out[1] *571:A 0.000363837
7 adc_out[1] *109:12 9.90367e-05
8 adc_out[0] adc_out[1] 0
*RES
1 *571:X adc_out[1] 27.8319 
*END

*D_NET *5 0.00076938
*CONN
*P adc_out[2] O
*I *572:X O *D sky130_fd_sc_hd__buf_2
*CAP
1 adc_out[2] 0.00038469
2 *572:X 0.00038469
3 adc_out[2] adc_out[3] 0
4 adc_out[2] *572:A 0
5 adc_out[1] adc_out[2] 0
*RES
1 *572:X adc_out[2] 19.1499 
*END

*D_NET *6 0.00115025
*CONN
*P adc_out[3] O
*I *573:X O *D sky130_fd_sc_hd__buf_2
*CAP
1 adc_out[3] 0.000540764
2 *573:X 0.000540764
3 adc_out[3] adc_out[4] 6.87203e-05
4 adc_out[3] *554:A 0
5 adc_out[2] adc_out[3] 0
*RES
1 *573:X adc_out[3] 20.6367 
*END

*D_NET *7 0.00163254
*CONN
*P adc_out[4] O
*I *574:X O *D sky130_fd_sc_hd__buf_2
*CAP
1 adc_out[4] 0.000733035
2 *574:X 0.000733035
3 adc_out[4] adc_out[5] 6.76337e-05
4 adc_out[4] *554:A 0
5 adc_out[4] *575:A 3.01126e-05
6 adc_out[3] adc_out[4] 6.87203e-05
*RES
1 *574:X adc_out[4] 23.742 
*END

*D_NET *8 0.00186978
*CONN
*P adc_out[5] O
*I *575:X O *D sky130_fd_sc_hd__buf_2
*CAP
1 adc_out[5] 0.00070871
2 *575:X 0.00070871
3 adc_out[5] adc_out[6] 0
4 adc_out[5] adc_out[7] 0
5 adc_out[5] *561:A 0.000307591
6 adc_out[5] *575:A 7.71321e-05
7 adc_out[4] adc_out[5] 6.76337e-05
*RES
1 *575:X adc_out[5] 24.4927 
*END

*D_NET *9 0.00155596
*CONN
*P adc_out[6] O
*I *576:X O *D sky130_fd_sc_hd__buf_2
*CAP
1 adc_out[6] 0.000744716
2 *576:X 0.000744716
3 adc_out[6] adc_out[7] 0
4 adc_out[6] *514:S 0
5 adc_out[6] *552:A 2.72545e-05
6 adc_out[6] *561:A 3.92757e-05
7 adc_out[5] adc_out[6] 0
*RES
1 *576:X adc_out[6] 22.2803 
*END

*D_NET *10 0.00250706
*CONN
*P adc_out[7] O
*I *561:X O *D sky130_fd_sc_hd__buf_2
*CAP
1 adc_out[7] 0.00125353
2 *561:X 0.00125353
3 adc_out[7] dac_in[7] 0
4 adc_out[7] *552:A 0
5 adc_out[7] *561:A 0
6 adc_out[5] adc_out[7] 0
7 adc_out[6] adc_out[7] 0
*RES
1 *561:X adc_out[7] 34.0972 
*END

*D_NET *11 0.0140026
*CONN
*P clk I
*I *539:A I *D sky130_fd_sc_hd__clkbuf_16
*CAP
1 clk 0.00200934
2 *539:A 0
3 *11:17 0.00237618
4 *11:15 0.00438553
5 *11:15 *559:A 9.90431e-05
6 *11:15 *81:6 0.00248369
7 *11:17 *491:C_N 0.000190848
8 *11:17 *491:D_N 5.52302e-05
9 *11:17 *492:A1 0.000226507
10 *11:17 *540:A 0.000401926
11 *11:17 *61:12 0.00118155
12 *11:17 *81:6 0.000592755
*RES
1 clk *11:15 49.923 
2 *11:15 *11:17 46.7411 
3 *11:17 *539:A 9.3 
*END

*D_NET *12 0.000865687
*CONN
*P comp I
*I *559:A I *D sky130_fd_sc_hd__clkbuf_2
*CAP
1 comp 0.000383322
2 *559:A 0.000383322
3 *11:15 *559:A 9.90431e-05
*RES
1 comp *559:A 21.8894 
*END

*D_NET *13 0.00108994
*CONN
*P dac_in[0] O
*I *562:X O *D sky130_fd_sc_hd__buf_2
*CAP
1 dac_in[0] 0.000544971
2 *562:X 0.000544971
*RES
1 *562:X dac_in[0] 24.675 
*END

*D_NET *14 0.00130851
*CONN
*P dac_in[1] O
*I *563:X O *D sky130_fd_sc_hd__buf_2
*CAP
1 dac_in[1] 0.00062545
2 *563:X 0.00062545
3 dac_in[1] *562:A 5.76121e-05
*RES
1 *563:X dac_in[1] 25.6214 
*END

*D_NET *15 0.00108994
*CONN
*P dac_in[2] O
*I *564:X O *D sky130_fd_sc_hd__buf_2
*CAP
1 dac_in[2] 0.000544971
2 *564:X 0.000544971
*RES
1 *564:X dac_in[2] 24.675 
*END

*D_NET *16 0.00108994
*CONN
*P dac_in[3] O
*I *565:X O *D sky130_fd_sc_hd__buf_2
*CAP
1 dac_in[3] 0.000544971
2 *565:X 0.000544971
*RES
1 *565:X dac_in[3] 24.675 
*END

*D_NET *17 0.00137423
*CONN
*P dac_in[4] O
*I *566:X O *D sky130_fd_sc_hd__buf_2
*CAP
1 dac_in[4] 0.000687116
2 *566:X 0.000687116
*RES
1 *566:X dac_in[4] 26.4429 
*END

*D_NET *18 0.00108994
*CONN
*P dac_in[5] O
*I *567:X O *D sky130_fd_sc_hd__buf_2
*CAP
1 dac_in[5] 0.000544971
2 *567:X 0.000544971
*RES
1 *567:X dac_in[5] 24.675 
*END

*D_NET *19 0.00145352
*CONN
*P dac_in[6] O
*I *568:X O *D sky130_fd_sc_hd__buf_2
*CAP
1 dac_in[6] 0.000726762
2 *568:X 0.000726762
*RES
1 *568:X dac_in[6] 26.4429 
*END

*D_NET *20 0.00113013
*CONN
*P dac_in[7] O
*I *569:X O *D sky130_fd_sc_hd__buf_2
*CAP
1 dac_in[7] 0.000565067
2 *569:X 0.000565067
3 adc_out[7] dac_in[7] 0
*RES
1 *569:X dac_in[7] 25.0857 
*END

*D_NET *21 0.00105796
*CONN
*P rst_n I
*I *560:A I *D sky130_fd_sc_hd__clkbuf_2
*CAP
1 rst_n 0.000528978
2 *560:A 0.000528978
*RES
1 rst_n *560:A 24.318 
*END

*D_NET *22 0.000370313
*CONN
*I *519:D I *D sky130_fd_sc_hd__dfxtp_1
*I *478:Y O *D sky130_fd_sc_hd__nor2_1
*CAP
1 *519:D 0.000140948
2 *478:Y 0.000140948
3 *519:D *478:B 1.24368e-05
4 *519:D *54:6 1.55885e-05
5 *519:D *75:18 7.01199e-06
6 *519:D *93:37 5.33786e-05
7 *519:D *94:79 0
*RES
1 *478:Y *519:D 29.9438 
*END

*D_NET *23 0.000439614
*CONN
*I *520:D I *D sky130_fd_sc_hd__dfxtp_1
*I *480:Y O *D sky130_fd_sc_hd__a21oi_1
*CAP
1 *520:D 0.000133783
2 *480:Y 0.000133783
3 *520:D *78:10 5.03624e-05
4 *520:D *78:25 3.57718e-05
5 *520:D *91:93 9.25014e-06
6 *520:D *93:99 3.44107e-05
7 *520:D *94:90 4.22525e-05
*RES
1 *480:Y *520:D 30.7295 
*END

*D_NET *24 0.000361272
*CONN
*I *521:D I *D sky130_fd_sc_hd__dfxtp_2
*I *483:X O *D sky130_fd_sc_hd__and4_1
*CAP
1 *521:D 4.40066e-05
2 *483:X 4.40066e-05
3 *521:D *483:B 0.000167931
4 *521:D *79:18 8.42801e-05
5 *521:D *80:33 5.30637e-06
6 *521:D *91:93 1.57414e-05
*RES
1 *483:X *521:D 20.2295 
*END

*D_NET *25 0.000886652
*CONN
*I *522:D I *D sky130_fd_sc_hd__dfxtp_1
*I *486:Y O *D sky130_fd_sc_hd__a21oi_1
*CAP
1 *522:D 0.00030906
2 *486:Y 0.00030906
3 *522:D *489:A3 9.90431e-05
4 *522:D *508:A0 0
5 *522:D *522:CLK 1.64343e-05
6 *522:D *523:CLK 0.000153054
7 *522:D *523:D 0
*RES
1 *486:Y *522:D 32.783 
*END

*D_NET *26 0.000757161
*CONN
*I *523:D I *D sky130_fd_sc_hd__dfxtp_1
*I *490:Y O *D sky130_fd_sc_hd__a21oi_1
*CAP
1 *523:D 0.000318782
2 *490:Y 0.000318782
3 *523:D *490:A1 5.33334e-05
4 *523:D *490:B1 1.03968e-05
5 *523:D *83:10 0
6 *523:D *83:33 5.58666e-05
7 *522:D *523:D 0
*RES
1 *490:Y *523:D 32.7116 
*END

*D_NET *27 0.000415907
*CONN
*I *524:D I *D sky130_fd_sc_hd__dfxtp_1
*I *493:Y O *D sky130_fd_sc_hd__a21oi_1
*CAP
1 *524:D 0.000167871
2 *493:Y 0.000167871
3 *524:D *495:A1 0
4 *524:D *525:D 0
5 *524:D *83:10 0
6 *524:D *84:23 8.01652e-05
*RES
1 *493:Y *524:D 30.9438 
*END

*D_NET *28 0.000689446
*CONN
*I *525:D I *D sky130_fd_sc_hd__dfxtp_1
*I *496:Y O *D sky130_fd_sc_hd__a21oi_1
*CAP
1 *525:D 0.000225261
2 *496:Y 0.000225261
3 *525:D *524:CLK 0.00013614
4 *525:D *525:CLK 8.2899e-05
5 *525:D *52:46 0
6 *525:D *75:93 1.98839e-05
7 *524:D *525:D 0
*RES
1 *496:Y *525:D 31.8009 
*END

*D_NET *29 0.00123326
*CONN
*I *526:D I *D sky130_fd_sc_hd__dfxtp_1
*I *499:Y O *D sky130_fd_sc_hd__a21oi_1
*CAP
1 *526:D 0.000264857
2 *499:Y 0.000264857
3 *526:D *565:A 6.8646e-06
4 *526:D *52:27 9.25014e-06
5 *526:D *52:83 5.41794e-05
6 *526:D *52:102 0.000179739
7 *526:D *75:91 0.000410013
8 *526:D *86:10 4.35048e-05
9 *526:D *92:16 0
*RES
1 *499:Y *526:D 34.0152 
*END

*D_NET *30 0.000507076
*CONN
*I *527:D I *D sky130_fd_sc_hd__dfxtp_1
*I *502:Y O *D sky130_fd_sc_hd__a21oi_1
*CAP
1 *527:D 0.000200915
2 *502:Y 0.000200915
3 *527:D *502:A1 0
4 *527:D *502:A2 0
5 *527:D *86:23 0.000105246
*RES
1 *502:Y *527:D 31.1402 
*END

*D_NET *31 0.000595145
*CONN
*I *528:D I *D sky130_fd_sc_hd__dfxtp_1
*I *505:Y O *D sky130_fd_sc_hd__a21oi_1
*CAP
1 *528:D 9.95327e-05
2 *505:Y 9.95327e-05
3 *528:D *505:A1 0.000212769
4 *528:D *505:A2 5.33005e-05
5 *528:D *528:CLK 0.00013001
*RES
1 *505:Y *528:D 21.6313 
*END

*D_NET *32 0.00026438
*CONN
*I *529:D I *D sky130_fd_sc_hd__dfxtp_1
*I *507:X O *D sky130_fd_sc_hd__mux2_1
*CAP
1 *529:D 0.000123973
2 *507:X 0.000123973
3 *529:D *507:S 0
4 *529:D *76:99 1.64343e-05
*RES
1 *507:X *529:D 29.7116 
*END

*D_NET *33 0.000325391
*CONN
*I *530:D I *D sky130_fd_sc_hd__dfxtp_1
*I *508:X O *D sky130_fd_sc_hd__mux2_1
*CAP
1 *530:D 0.000110208
2 *508:X 0.000110208
3 *530:D *531:CLK 0.000104974
*RES
1 *508:X *530:D 29.7473 
*END

*D_NET *34 0.000381932
*CONN
*I *531:D I *D sky130_fd_sc_hd__dfxtp_1
*I *509:X O *D sky130_fd_sc_hd__mux2_1
*CAP
1 *531:D 0.000177021
2 *509:X 0.000177021
3 *531:D *508:S 4.87669e-06
4 *531:D *509:A0 5.39166e-06
5 *531:D *573:A 1.76204e-05
*RES
1 *509:X *531:D 30.2473 
*END

*D_NET *35 0.000529187
*CONN
*I *550:A I *D sky130_fd_sc_hd__dlygate4sd3_1
*I *510:X O *D sky130_fd_sc_hd__mux2_1
*CAP
1 *550:A 0.000172422
2 *510:X 0.000172422
3 *550:A *71:38 0.000184344
*RES
1 *510:X *550:A 22.0286 
*END

*D_NET *36 0.000712321
*CONN
*I *556:A I *D sky130_fd_sc_hd__dlygate4sd3_1
*I *511:X O *D sky130_fd_sc_hd__mux2_1
*CAP
1 *556:A 0.000305681
2 *511:X 0.000305681
3 *556:A *511:A0 0.00010096
4 *556:A *533:D 0
5 *556:A *549:A 0
*RES
1 *511:X *556:A 32.6179 
*END

*D_NET *37 0.000795015
*CONN
*I *551:A I *D sky130_fd_sc_hd__dlygate4sd3_1
*I *512:X O *D sky130_fd_sc_hd__mux2_1
*CAP
1 *551:A 0.000236541
2 *512:X 0.000236541
3 *551:A *512:A0 0.000140933
4 *551:A *534:D 2.56601e-05
5 *551:A *71:44 2.89016e-05
6 *551:A *71:76 0.000126439
7 *551:A *112:10 0
*RES
1 *512:X *551:A 31.9571 
*END

*D_NET *38 0.00127758
*CONN
*I *547:A I *D sky130_fd_sc_hd__dlygate4sd3_1
*I *513:X O *D sky130_fd_sc_hd__mux2_1
*CAP
1 *547:A 0.000400545
2 *513:X 0.000400545
3 *547:A *510:A0 0
4 *547:A *513:A0 0.000147949
5 *547:A *513:S 3.34366e-05
6 *547:A *535:D 0
7 *547:A *568:A 0.000240958
8 *547:A *86:23 5.41494e-05
*RES
1 *513:X *547:A 35.8857 
*END

*D_NET *39 0.000114192
*CONN
*I *553:A I *D sky130_fd_sc_hd__dlygate4sd3_1
*I *514:X O *D sky130_fd_sc_hd__mux2_1
*CAP
1 *553:A 5.70959e-05
2 *514:X 5.70959e-05
*RES
1 *514:X *553:A 19.5643 
*END

*D_NET *40 0.000234385
*CONN
*I *537:D I *D sky130_fd_sc_hd__dfxtp_1
*I *516:X O *D sky130_fd_sc_hd__o21a_1
*CAP
1 *537:D 5.8282e-05
2 *516:X 5.8282e-05
3 *537:D *512:A0 2.56601e-05
4 *537:D *567:A 6.8646e-06
5 *537:D *76:20 5.24274e-05
6 *537:D *76:36 1.64343e-05
7 *537:D *88:21 1.64343e-05
*RES
1 *516:X *537:D 29.1045 
*END

*D_NET *41 0.00061261
*CONN
*I *538:D I *D sky130_fd_sc_hd__dfxtp_1
*I *518:X O *D sky130_fd_sc_hd__a311o_1
*CAP
1 *538:D 0.000215476
2 *518:X 0.000215476
3 *538:D *512:A0 9.25014e-06
4 *538:D *518:A2 0
5 *538:D *50:29 5.33882e-05
6 *538:D *76:14 5.95099e-05
7 *538:D *87:46 5.95099e-05
*RES
1 *518:X *538:D 31.9438 
*END

*D_NET *42 0.000977982
*CONN
*I *518:A1 I *D sky130_fd_sc_hd__a311o_1
*I *467:Y O *D sky130_fd_sc_hd__inv_2
*CAP
1 *518:A1 0.000240321
2 *467:Y 0.000240321
3 *518:A1 *518:A2 0.000150618
4 *518:A1 *50:10 0.00014183
5 *518:A1 *50:29 0.000204893
*RES
1 *467:Y *518:A1 32.1357 
*END

*D_NET *43 0.000972929
*CONN
*I *518:C1 I *D sky130_fd_sc_hd__a311o_1
*I *506:A I *D sky130_fd_sc_hd__or2_4
*I *468:Y O *D sky130_fd_sc_hd__inv_2
*CAP
1 *518:C1 0
2 *506:A 0.000337404
3 *468:Y 2.78632e-05
4 *43:6 0.000365267
5 *506:A *467:A 0
6 *506:A *506:B 8.90314e-05
7 *506:A *518:A2 1.76039e-05
8 *43:6 *516:B1 5.71472e-05
9 *43:6 *85:34 7.8613e-05
*RES
1 *468:Y *43:6 10.2464 
2 *43:6 *506:A 24.2821 
3 *43:6 *518:C1 9.3 
*END

*D_NET *44 0.00240821
*CONN
*I *515:A0 I *D sky130_fd_sc_hd__mux2_1
*I *518:A2 I *D sky130_fd_sc_hd__a311o_1
*I *469:Y O *D sky130_fd_sc_hd__inv_2
*CAP
1 *515:A0 0.000357236
2 *518:A2 0.000277698
3 *469:Y 0.00016285
4 *44:6 0.000797784
5 *515:A0 *512:A0 7.83366e-05
6 *515:A0 *76:14 0.000122055
7 *515:A0 *87:46 2.88018e-06
8 *518:A2 *467:A 0
9 *518:A2 *512:A0 0
10 *518:A2 *516:A1 0.000157381
11 *518:A2 *516:B1 4.75428e-05
12 *518:A2 *518:B1 5.33433e-05
13 *518:A2 *50:29 6.8646e-06
14 *518:A2 *76:20 5.83233e-05
15 *518:A2 *85:34 0.00010096
16 *44:6 *87:46 1.67323e-05
17 *506:A *518:A2 1.76039e-05
18 *518:A1 *518:A2 0.000150618
19 *538:D *518:A2 0
*RES
1 *469:Y *44:6 11.0679 
2 *44:6 *518:A2 25.4429 
3 *44:6 *515:A0 23.6571 
*END

*D_NET *45 0.000416892
*CONN
*I *492:A1 I *D sky130_fd_sc_hd__mux2_1
*I *470:Y O *D sky130_fd_sc_hd__inv_2
*CAP
1 *492:A1 9.51925e-05
2 *470:Y 9.51925e-05
3 *11:17 *492:A1 0.000226507
*RES
1 *470:Y *492:A1 20.7786 
*END

*D_NET *46 0.000650349
*CONN
*I *495:A1 I *D sky130_fd_sc_hd__mux2_1
*I *471:Y O *D sky130_fd_sc_hd__inv_2
*CAP
1 *495:A1 0.000243645
2 *471:Y 0.000243645
3 *495:A1 *493:B1 3.18676e-05
4 *495:A1 *496:A1 7.32173e-05
5 *495:A1 *496:B1 1.00073e-05
6 *495:A1 *52:46 4.35048e-05
7 *495:A1 *61:12 4.46186e-06
8 *524:D *495:A1 0
*RES
1 *471:Y *495:A1 31.5464 
*END

*D_NET *47 0.000855513
*CONN
*I *498:A1 I *D sky130_fd_sc_hd__mux2_1
*I *472:Y O *D sky130_fd_sc_hd__inv_2
*CAP
1 *498:A1 0.000194522
2 *472:Y 0.000194522
3 *498:A1 *499:A2 5.71472e-05
4 *498:A1 *499:B1 5.33005e-05
5 *498:A1 *52:35 0.000356022
*RES
1 *472:Y *498:A1 23.2429 
*END

*D_NET *48 0.000470498
*CONN
*I *501:A1 I *D sky130_fd_sc_hd__mux2_1
*I *473:Y O *D sky130_fd_sc_hd__inv_2
*CAP
1 *501:A1 0.000145427
2 *473:Y 0.000145427
3 *501:A1 *80:33 0.000179643
*RES
1 *473:Y *501:A1 20.7786 
*END

*D_NET *49 0.000608099
*CONN
*I *504:A1 I *D sky130_fd_sc_hd__mux2_1
*I *474:Y O *D sky130_fd_sc_hd__inv_2
*CAP
1 *504:A1 7.10615e-05
2 *474:Y 7.10615e-05
3 *504:A1 *504:S 5.71472e-05
4 *504:A1 *515:S 7.77751e-05
5 *504:A1 *86:23 0.000317082
6 *504:A1 *87:46 1.39726e-05
*RES
1 *474:Y *504:A1 21.6 
*END

*D_NET *50 0.00409081
*CONN
*I *517:A_N I *D sky130_fd_sc_hd__and2b_1
*I *518:A3 I *D sky130_fd_sc_hd__a311o_1
*I *516:A1 I *D sky130_fd_sc_hd__o21a_1
*I *475:Y O *D sky130_fd_sc_hd__nor3_1
*CAP
1 *517:A_N 2.2089e-05
2 *518:A3 0
3 *516:A1 0.000141061
4 *475:Y 0.000671229
5 *50:29 0.000198775
6 *50:10 0.000988976
7 *516:A1 *516:B1 0.000412326
8 *516:A1 *76:20 3.97543e-05
9 *517:A_N *518:B1 0.000142856
10 *517:A_N *85:34 8.07313e-05
11 *50:10 *540:A 0.000369375
12 *50:10 *541:A 0.00031937
13 *50:10 *74:6 0
14 *50:29 *541:A 0.000139913
15 *518:A1 *50:10 0.00014183
16 *518:A1 *50:29 0.000204893
17 *518:A2 *516:A1 0.000157381
18 *518:A2 *50:29 6.8646e-06
19 *538:D *50:29 5.33882e-05
*RES
1 *475:Y *50:10 20.2464 
2 *50:10 *516:A1 23.5857 
3 *50:10 *50:29 13.4286 
4 *50:29 *518:A3 9.3 
5 *50:29 *517:A_N 10.6571 
*END

*D_NET *51 0.00601224
*CONN
*I *506:B I *D sky130_fd_sc_hd__or2_4
*I *477:B I *D sky130_fd_sc_hd__nand2_2
*I *483:B I *D sky130_fd_sc_hd__and4_1
*I *476:X O *D sky130_fd_sc_hd__or4b_2
*CAP
1 *506:B 0.00095659
2 *477:B 0
3 *483:B 0.000757176
4 *476:X 0
5 *51:10 0.00121108
6 *51:4 0.00141049
7 *483:B *483:C 3.18676e-05
8 *483:B *77:20 0
9 *483:B *79:18 0.000103378
10 *483:B *79:92 0
11 *483:B *80:33 4.40915e-05
12 *483:B *93:23 0.000447622
13 *483:B *94:90 0
14 *506:B *467:A 0.000485612
15 *506:B *91:93 4.43256e-05
16 *51:10 *77:20 0
17 *51:10 *91:93 6.05161e-06
18 *51:10 *92:39 5.52302e-05
19 *51:10 *92:56 0.000201761
20 *506:A *506:B 8.90314e-05
21 *521:D *483:B 0.000167931
*RES
1 *476:X *51:4 9.3 
2 *51:4 *51:10 10.2857 
3 *51:10 *483:B 25.7464 
4 *51:10 *477:B 13.8 
5 *51:4 *506:B 22.5857 
*END

*D_NET *52 0.0148167
*CONN
*I *505:B1 I *D sky130_fd_sc_hd__a21oi_1
*I *502:B1 I *D sky130_fd_sc_hd__a21oi_1
*I *499:B1 I *D sky130_fd_sc_hd__a21oi_1
*I *493:B1 I *D sky130_fd_sc_hd__a21oi_1
*I *490:B1 I *D sky130_fd_sc_hd__a21oi_1
*I *486:B1 I *D sky130_fd_sc_hd__a21oi_1
*I *496:B1 I *D sky130_fd_sc_hd__a21oi_1
*I *478:B I *D sky130_fd_sc_hd__nor2_1
*I *477:Y O *D sky130_fd_sc_hd__nand2_2
*CAP
1 *505:B1 0.000238114
2 *502:B1 0
3 *499:B1 3.04135e-05
4 *493:B1 0.000240218
5 *490:B1 0.000364149
6 *486:B1 2.64794e-05
7 *496:B1 4.69315e-05
8 *478:B 0.000270908
9 *477:Y 0.000793784
10 *52:102 0.000819529
11 *52:83 0.000631208
12 *52:52 0.000623046
13 *52:46 0.000596283
14 *52:35 0.000904665
15 *52:27 0.00107818
16 *52:12 0.0013894
17 *478:B *481:B 5.52238e-05
18 *478:B *483:C 4.14279e-05
19 *478:B *54:6 7.61932e-05
20 *478:B *79:41 1.08359e-05
21 *478:B *91:93 5.01213e-05
22 *478:B *93:50 0
23 *478:B *94:67 0.000134351
24 *478:B *94:79 2.95642e-05
25 *486:B1 *486:A1 5.80706e-06
26 *486:B1 *489:B1 5.41794e-05
27 *486:B1 *508:A0 1.46624e-05
28 *490:B1 *489:A1 0.000184226
29 *490:B1 *490:A1 4.69993e-05
30 *490:B1 *490:A2 3.18676e-05
31 *493:B1 *493:A1 6.87574e-05
32 *493:B1 *493:A2 5.52238e-05
33 *493:B1 *81:37 0.000140933
34 *496:B1 *496:A1 2.44318e-05
35 *496:B1 *496:A2 5.52238e-05
36 *496:B1 *84:23 0.000184745
37 *505:B1 *502:A1 0.000303747
38 *52:12 *77:14 0.00105217
39 *52:12 *94:8 5.33005e-05
40 *52:27 *499:A1 0.00012401
41 *52:27 *79:41 0.000132442
42 *52:27 *79:52 8.89385e-05
43 *52:27 *79:67 9.55563e-05
44 *52:27 *91:93 0.00015388
45 *52:27 *91:115 0.00018314
46 *52:27 *92:16 0
47 *52:35 *496:A1 0.000499445
48 *52:35 *496:A2 4.08637e-05
49 *52:35 *498:S 7.77751e-05
50 *52:35 *499:A2 0
51 *52:35 *84:23 0.000181803
52 *52:46 *496:A2 0.000148189
53 *52:46 *61:12 0
54 *52:46 *85:10 1.08359e-05
55 *52:46 *85:18 5.4115e-05
56 *52:52 *489:B1 0.00019187
57 *52:52 *492:S 0.000128154
58 *52:52 *508:A0 2.15363e-05
59 *52:52 *61:12 0
60 *52:52 *81:19 0
61 *52:52 *81:30 3.43705e-05
62 *52:52 *85:18 0.000345917
63 *52:83 *499:A1 4.66511e-05
64 *52:102 *502:A1 9.90367e-05
65 *52:102 *502:A2 0.000186669
66 *52:102 *75:91 0.00048351
67 *495:A1 *493:B1 3.18676e-05
68 *495:A1 *496:B1 1.00073e-05
69 *495:A1 *52:46 4.35048e-05
70 *498:A1 *499:B1 5.33005e-05
71 *498:A1 *52:35 0.000356022
72 *519:D *478:B 1.24368e-05
73 *523:D *490:B1 1.03968e-05
74 *525:D *52:46 0
75 *526:D *52:27 9.25014e-06
76 *526:D *52:83 5.41794e-05
77 *526:D *52:102 0.000179739
*RES
1 *477:Y *52:12 25.5679 
2 *52:12 *478:B 19.3714 
3 *52:12 *52:27 9.83929 
4 *52:27 *52:35 20.1607 
5 *52:35 *496:B1 11.0679 
6 *52:35 *52:46 7.96429 
7 *52:46 *52:52 6.85714 
8 *52:52 *486:B1 14.5321 
9 *52:52 *490:B1 18.8714 
10 *52:46 *493:B1 18.4429 
11 *52:27 *52:83 0.732143 
12 *52:83 *499:B1 14.3357 
13 *52:83 *52:102 15.8571 
14 *52:102 *502:B1 9.3 
15 *52:102 *505:B1 14.3536 
*END

*D_NET *53 0.000581936
*CONN
*I *480:B1 I *D sky130_fd_sc_hd__a21oi_1
*I *479:Y O *D sky130_fd_sc_hd__o21ai_1
*CAP
1 *480:B1 0.000166892
2 *479:Y 0.000166892
3 *480:B1 *479:A1 7.96557e-05
4 *480:B1 *479:A2 8.78228e-05
5 *480:B1 *479:B1 7.43578e-06
6 *480:B1 *93:8 7.3237e-05
*RES
1 *479:Y *480:B1 22.5643 
*END

*D_NET *54 0.00501444
*CONN
*I *483:C I *D sky130_fd_sc_hd__and4_1
*I *487:A2 I *D sky130_fd_sc_hd__o21ai_1
*I *485:B I *D sky130_fd_sc_hd__nand2_1
*I *489:A3 I *D sky130_fd_sc_hd__o31a_1
*I *484:B I *D sky130_fd_sc_hd__or2_1
*I *481:Y O *D sky130_fd_sc_hd__nand3_2
*CAP
1 *483:C 0.000166387
2 *487:A2 0
3 *485:B 5.45408e-05
4 *489:A3 0.000227219
5 *484:B 1.60363e-05
6 *481:Y 0
7 *54:23 0.000406252
8 *54:10 0.00021073
9 *54:6 0.0002354
10 *54:4 0.000331585
11 *483:C *481:B 9.60875e-05
12 *483:C *79:35 5.33005e-05
13 *483:C *79:41 5.33005e-05
14 *483:C *80:33 0.000524356
15 *484:B *484:A 0.00010096
16 *484:B *83:33 4.01768e-05
17 *484:B *91:17 1.33343e-05
18 *485:B *508:A0 2.28428e-05
19 *489:A3 *490:A1 0.000396219
20 *54:6 *508:A0 0.000128553
21 *54:6 *80:33 0.000880763
22 *54:6 *91:17 1.21289e-05
23 *54:6 *91:30 0.000297652
24 *54:10 *487:A1 2.44638e-05
25 *54:10 *80:12 9.60875e-05
26 *54:10 *80:33 2.24372e-05
27 *54:10 *83:33 3.19626e-05
28 *54:10 *91:17 0.000223246
29 *54:23 *484:A 0
30 *54:23 *490:A1 0
31 *54:23 *508:A0 5.03894e-05
32 *54:23 *80:33 5.04841e-06
33 *54:23 *83:33 1.69115e-05
34 *54:23 *83:37 1.19509e-05
35 *478:B *483:C 4.14279e-05
36 *478:B *54:6 7.61932e-05
37 *483:B *483:C 3.18676e-05
38 *519:D *54:6 1.55885e-05
39 *522:D *489:A3 9.90431e-05
*RES
1 *481:Y *54:4 9.3 
2 *54:4 *54:6 8.33929 
3 *54:6 *54:10 2.91071 
4 *54:10 *484:B 10.2464 
5 *54:10 *54:23 6.875 
6 *54:23 *489:A3 18.175 
7 *54:23 *485:B 14.8357 
8 *54:6 *487:A2 9.3 
9 *54:4 *483:C 14.7821 
*END

*D_NET *55 0.000374924
*CONN
*I *483:D I *D sky130_fd_sc_hd__and4_1
*I *482:X O *D sky130_fd_sc_hd__a21o_1
*CAP
1 *483:D 0.000124147
2 *482:X 0.000124147
3 *483:D *75:14 2.56694e-05
4 *483:D *79:35 0.00010096
*RES
1 *482:X *483:D 29.5821 
*END

*D_NET *56 0.000624791
*CONN
*I *486:A1 I *D sky130_fd_sc_hd__a21oi_1
*I *484:X O *D sky130_fd_sc_hd__or2_1
*CAP
1 *486:A1 0.000186132
2 *484:X 0.000186132
3 *486:A1 *489:A2 0
4 *486:A1 *508:A0 0.00014576
5 *486:A1 *83:33 0.00010096
6 *486:B1 *486:A1 5.80706e-06