*SPEF "ieee 1481-1999"
*DESIGN "controller"
*DATE "00:46:43 Sunday November 16, 2025"
*VENDOR "The OpenROAD Project"
*PROGRAM "OpenROAD"
*VERSION "edf00dff99f6c40d67a30c0e22a8191c5d2ed9d6"
*DESIGN_FLOW "NAME_SCOPE LOCAL" "PIN_CAP NONE"
*DIVIDER /
*DELIMITER :
*BUS_DELIMITER []
*T_UNIT 1 NS
*C_UNIT 1 PF
*R_UNIT 1 OHM
*L_UNIT 1 HENRY

*NAME_MAP
*3 adc_out[0]
*4 adc_out[1]
*5 adc_out[2]
*6 adc_out[3]
*7 adc_out[4]
*8 adc_out[5]
*9 adc_out[6]
*10 adc_out[7]
*11 clk
*12 comp
*13 dac_in[0]
*14 dac_in[1]
*15 dac_in[2]
*16 dac_in[3]
*17 dac_in[4]
*18 dac_in[5]
*19 dac_in[6]
*20 dac_in[7]
*21 rst_n
*22 _000_
*23 _001_
*24 _002_
*25 _003_
*26 _004_
*27 _005_
*28 _006_
*29 _007_
*30 _008_
*31 _009_
*32 _010_
*33 _011_
*34 _012_
*35 _013_
*36 _014_
*37 _015_
*38 _016_
*39 _017_
*40 _018_
*41 _019_
*42 _020_
*43 _021_
*44 _022_
*45 _023_
*46 _024_
*47 _025_
*48 _026_
*49 _027_
*50 _028_
*51 _029_
*52 _030_
*53 _031_
*54 _032_
*55 _033_
*56 _034_
*57 _035_
*58 _036_
*59 _037_
*60 _038_
*61 _039_
*62 _040_
*63 _041_
*64 _042_
*65 _043_
*66 _044_
*67 _045_
*68 _046_
*69 _047_
*70 _048_
*71 _049_
*72 _050_
*73 _051_
*74 clknet_0_clk
*75 clknet_1_0__leaf_clk
*76 clknet_1_1__leaf_clk
*77 count\[0\]
*78 count\[1\]
*79 count\[2\]
*80 count\[3\]
*81 net1
*82 net10
*83 net11
*84 net12
*85 net13
*86 net14
*87 net15
*88 net16
*89 net17
*90 net18
*91 net19
*92 net2
*93 net20
*94 net21
*95 net22
*96 net23
*97 net24
*98 net25
*99 net26
*100 net27
*101 net28
*102 net29
*103 net3
*104 net30
*105 net31
*106 net32
*107 net33
*108 net34
*109 net4
*110 net5
*111 net6
*112 net7
*113 net8
*114 net9
*115 ANTENNA_1
*116 ANTENNA_2
*117 ANTENNA_3
*118 FILLER_0_109
*119 FILLER_0_113
*120 FILLER_0_125
*121 FILLER_0_137
*122 FILLER_0_141
*123 FILLER_0_15
*124 FILLER_0_153
*125 FILLER_0_165
*126 FILLER_0_169
*127 FILLER_0_181
*128 FILLER_0_193
*129 FILLER_0_197
*130 FILLER_0_209
*131 FILLER_0_221
*132 FILLER_0_225
*133 FILLER_0_237
*134 FILLER_0_247
*135 FILLER_0_251
*136 FILLER_0_253
*137 FILLER_0_27
*138 FILLER_0_277
*139 FILLER_0_281
*140 FILLER_0_29
*141 FILLER_0_3
*142 FILLER_0_41
*143 FILLER_0_53
*144 FILLER_0_57
*145 FILLER_0_69
*146 FILLER_0_81
*147 FILLER_0_85
*148 FILLER_0_97
*149 FILLER_1_113
*150 FILLER_1_125
*151 FILLER_1_142
*152 FILLER_1_146
*153 FILLER_1_15
*154 FILLER_1_153
*155 FILLER_1_165
*156 FILLER_1_169
*157 FILLER_1_186
*158 FILLER_1_198
*159 FILLER_1_210
*160 FILLER_1_222
*161 FILLER_1_225
*162 FILLER_1_233
*163 FILLER_1_259
*164 FILLER_1_27
*165 FILLER_1_279
*166 FILLER_1_281
*167 FILLER_1_3
*168 FILLER_1_39
*169 FILLER_1_51
*170 FILLER_1_55
*171 FILLER_1_57
*172 FILLER_1_69
*173 FILLER_1_81
*174 FILLER_1_93
*175 FILLER_2_114
*176 FILLER_2_126
*177 FILLER_2_130
*178 FILLER_2_139
*179 FILLER_2_15
*180 FILLER_2_165
*181 FILLER_2_183
*182 FILLER_2_195
*183 FILLER_2_197
*184 FILLER_2_209
*185 FILLER_2_221
*186 FILLER_2_233
*187 FILLER_2_245
*188 FILLER_2_251
*189 FILLER_2_253
*190 FILLER_2_27
*191 FILLER_2_281
*192 FILLER_2_29
*193 FILLER_2_3
*194 FILLER_2_41
*195 FILLER_2_53
*196 FILLER_2_65
*197 FILLER_2_77
*198 FILLER_2_83
*199 FILLER_3_108
*200 FILLER_3_113
*201 FILLER_3_125
*202 FILLER_3_133
*203 FILLER_3_139
*204 FILLER_3_15
*205 FILLER_3_151
*206 FILLER_3_159
*207 FILLER_3_166
*208 FILLER_3_177
*209 FILLER_3_189
*210 FILLER_3_201
*211 FILLER_3_212
*212 FILLER_3_225
*213 FILLER_3_237
*214 FILLER_3_249
*215 FILLER_3_27
*216 FILLER_3_276
*217 FILLER_3_281
*218 FILLER_3_3
*219 FILLER_3_39
*220 FILLER_3_51
*221 FILLER_3_55
*222 FILLER_3_57
*223 FILLER_3_69
*224 FILLER_3_81
*225 FILLER_3_89
*226 FILLER_4_109
*227 FILLER_4_121
*228 FILLER_4_131
*229 FILLER_4_139
*230 FILLER_4_141
*231 FILLER_4_15
*232 FILLER_4_158
*233 FILLER_4_170
*234 FILLER_4_182
*235 FILLER_4_194
*236 FILLER_4_214
*237 FILLER_4_226
*238 FILLER_4_248
*239 FILLER_4_253
*240 FILLER_4_265
*241 FILLER_4_27
*242 FILLER_4_273
*243 FILLER_4_29
*244 FILLER_4_3
*245 FILLER_4_41
*246 FILLER_4_53
*247 FILLER_4_65
*248 FILLER_4_77
*249 FILLER_4_83
*250 FILLER_4_85
*251 FILLER_4_97
*252 FILLER_5_105
*253 FILLER_5_111
*254 FILLER_5_113
*255 FILLER_5_121
*256 FILLER_5_131
*257 FILLER_5_143
*258 FILLER_5_167
*259 FILLER_5_169
*260 FILLER_5_19
*261 FILLER_5_199
*262 FILLER_5_223
*263 FILLER_5_225
*264 FILLER_5_233
*265 FILLER_5_252
*266 FILLER_5_262
*267 FILLER_5_279
*268 FILLER_5_281
*269 FILLER_5_31
*270 FILLER_5_43
*271 FILLER_5_55
*272 FILLER_5_57
*273 FILLER_5_69
*274 FILLER_5_7
*275 FILLER_5_81
*276 FILLER_6_102
*277 FILLER_6_114
*278 FILLER_6_139
*279 FILLER_6_141
*280 FILLER_6_149
*281 FILLER_6_15
*282 FILLER_6_162
*283 FILLER_6_172
*284 FILLER_6_181
*285 FILLER_6_193
*286 FILLER_6_200
*287 FILLER_6_219
*288 FILLER_6_231
*289 FILLER_6_243
*290 FILLER_6_269
*291 FILLER_6_27
*292 FILLER_6_29
*293 FILLER_6_3
*294 FILLER_6_41
*295 FILLER_6_53
*296 FILLER_6_65
*297 FILLER_6_77
*298 FILLER_6_83
*299 FILLER_6_85
*300 FILLER_7_103
*301 FILLER_7_111
*302 FILLER_7_113
*303 FILLER_7_121
*304 FILLER_7_140
*305 FILLER_7_15
*306 FILLER_7_169
*307 FILLER_7_180
*308 FILLER_7_185
*309 FILLER_7_197
*310 FILLER_7_215
*311 FILLER_7_223
*312 FILLER_7_225
*313 FILLER_7_233
*314 FILLER_7_245
*315 FILLER_7_253
*316 FILLER_7_263
*317 FILLER_7_27
*318 FILLER_7_285
*319 FILLER_7_3
*320 FILLER_7_39
*321 FILLER_7_51
*322 FILLER_7_55
*323 FILLER_7_57
*324 FILLER_7_69
*325 FILLER_7_77
*326 FILLER_8_106
*327 FILLER_8_118
*328 FILLER_8_141
*329 FILLER_8_15
*330 FILLER_8_153
*331 FILLER_8_158
*332 FILLER_8_166
*333 FILLER_8_189
*334 FILLER_8_195
*335 FILLER_8_197
*336 FILLER_8_201
*337 FILLER_8_218
*338 FILLER_8_230
*339 FILLER_8_248
*340 FILLER_8_261
*341 FILLER_8_27
*342 FILLER_8_287
*343 FILLER_8_29
*344 FILLER_8_3
*345 FILLER_8_41
*346 FILLER_8_53
*347 FILLER_8_65
*348 FILLER_8_77
*349 FILLER_8_83
*350 FILLER_8_85
*351 FILLER_8_89
*352 FILLER_9_103
*353 FILLER_9_111
*354 FILLER_9_113
*355 FILLER_9_125
*356 FILLER_9_13
*357 FILLER_9_130
*358 FILLER_9_138
*359 FILLER_9_141
*360 FILLER_9_153
*361 FILLER_9_165
*362 FILLER_9_173
*363 FILLER_9_185
*364 FILLER_9_193
*365 FILLER_9_197
*366 FILLER_9_203
*367 FILLER_9_208
*368 FILLER_9_220
*369 FILLER_9_225
*370 FILLER_9_233
*371 FILLER_9_248
*372 FILLER_9_25
*373 FILLER_9_253
*374 FILLER_9_278
*375 FILLER_9_281
*376 FILLER_9_286
*377 FILLER_9_29
*378 FILLER_9_41
*379 FILLER_9_47
*380 FILLER_9_52
*381 FILLER_9_57
*382 FILLER_9_69
*383 FILLER_9_7
*384 FILLER_9_81
*385 FILLER_9_85
*386 FILLER_9_91
*387 PHY_EDGE_ROW_0_Left_10
*388 PHY_EDGE_ROW_0_Right_0
*389 PHY_EDGE_ROW_1_Left_11
*390 PHY_EDGE_ROW_1_Right_1
*391 PHY_EDGE_ROW_2_Left_12
*392 PHY_EDGE_ROW_2_Right_2
*393 PHY_EDGE_ROW_3_Left_13
*394 PHY_EDGE_ROW_3_Right_3
*395 PHY_EDGE_ROW_4_Left_14
*396 PHY_EDGE_ROW_4_Right_4
*397 PHY_EDGE_ROW_5_Left_15
*398 PHY_EDGE_ROW_5_Right_5
*399 PHY_EDGE_ROW_6_Left_16
*400 PHY_EDGE_ROW_6_Right_6
*401 PHY_EDGE_ROW_7_Left_17
*402 PHY_EDGE_ROW_7_Right_7
*403 PHY_EDGE_ROW_8_Left_18
*404 PHY_EDGE_ROW_8_Right_8
*405 PHY_EDGE_ROW_9_Left_19
*406 PHY_EDGE_ROW_9_Right_9
*407 TAP_TAPCELL_ROW_0_20
*408 TAP_TAPCELL_ROW_0_21
*409 TAP_TAPCELL_ROW_0_22
*410 TAP_TAPCELL_ROW_0_23
*411 TAP_TAPCELL_ROW_0_24
*412 TAP_TAPCELL_ROW_0_25
*413 TAP_TAPCELL_ROW_0_26
*414 TAP_TAPCELL_ROW_0_27
*415 TAP_TAPCELL_ROW_0_28
*416 TAP_TAPCELL_ROW_0_29
*417 TAP_TAPCELL_ROW_1_30
*418 TAP_TAPCELL_ROW_1_31
*419 TAP_TAPCELL_ROW_1_32
*420 TAP_TAPCELL_ROW_1_33
*421 TAP_TAPCELL_ROW_1_34
*422 TAP_TAPCELL_ROW_2_35
*423 TAP_TAPCELL_ROW_2_36
*424 TAP_TAPCELL_ROW_2_37
*425 TAP_TAPCELL_ROW_2_38
*426 TAP_TAPCELL_ROW_2_39
*427 TAP_TAPCELL_ROW_3_40
*428 TAP_TAPCELL_ROW_3_41
*429 TAP_TAPCELL_ROW_3_42
*430 TAP_TAPCELL_ROW_3_43
*431 TAP_TAPCELL_ROW_3_44
*432 TAP_TAPCELL_ROW_4_45
*433 TAP_TAPCELL_ROW_4_46
*434 TAP_TAPCELL_ROW_4_47
*435 TAP_TAPCELL_ROW_4_48
*436 TAP_TAPCELL_ROW_4_49
*437 TAP_TAPCELL_ROW_5_50
*438 TAP_TAPCELL_ROW_5_51
*439 TAP_TAPCELL_ROW_5_52
*440 TAP_TAPCELL_ROW_5_53
*441 TAP_TAPCELL_ROW_5_54
*442 TAP_TAPCELL_ROW_6_55
*443 TAP_TAPCELL_ROW_6_56
*444 TAP_TAPCELL_ROW_6_57
*445 TAP_TAPCELL_ROW_6_58
*446 TAP_TAPCELL_ROW_6_59
*447 TAP_TAPCELL_ROW_7_60
*448 TAP_TAPCELL_ROW_7_61
*449 TAP_TAPCELL_ROW_7_62
*450 TAP_TAPCELL_ROW_7_63
*451 TAP_TAPCELL_ROW_7_64
*452 TAP_TAPCELL_ROW_8_65
*453 TAP_TAPCELL_ROW_8_66
*454 TAP_TAPCELL_ROW_8_67
*455 TAP_TAPCELL_ROW_8_68
*456 TAP_TAPCELL_ROW_8_69
*457 TAP_TAPCELL_ROW_9_70
*458 TAP_TAPCELL_ROW_9_71
*459 TAP_TAPCELL_ROW_9_72
*460 TAP_TAPCELL_ROW_9_73
*461 TAP_TAPCELL_ROW_9_74
*462 TAP_TAPCELL_ROW_9_75
*463 TAP_TAPCELL_ROW_9_76
*464 TAP_TAPCELL_ROW_9_77
*465 TAP_TAPCELL_ROW_9_78
*466 TAP_TAPCELL_ROW_9_79
*467 _052_
*468 _053_
*469 _054_
*470 _055_
*471 _056_
*472 _057_
*473 _058_
*474 _059_
*475 _060_
*476 _061_
*477 _062_
*478 _063_
*479 _064_
*480 _065_
*481 _066_
*482 _067_
*483 _068_
*484 _069_
*485 _070_
*486 _071_
*487 _072_
*488 _073_
*489 _074_
*490 _075_
*491 _076_
*492 _077_
*493 _078_
*494 _079_
*495 _080_
*496 _081_
*497 _082_
*498 _083_
*499 _084_
*500 _085_
*501 _086_
*502 _087_
*503 _088_
*504 _089_
*505 _090_
*506 _091_
*507 _092_
*508 _093_
*509 _094_
*510 _095_
*511 _096_
*512 _097_
*513 _098_
*514 _099_
*515 _100_
*516 _101_
*517 _102_
*518 _103_
*519 _104_
*520 _105_
*521 _106_
*522 _107_
*523 _108_
*524 _109_
*525 _110_
*526 _111_
*527 _112_
*528 _113_
*529 _114_
*530 _115_
*531 _116_
*532 _117_
*533 _118_
*534 _119_
*535 _120_
*536 _121_
*537 _122_
*538 _123_
*539 clkbuf_0_clk
*540 clkbuf_1_0__f_clk
*541 clkbuf_1_1__f_clk
*542 clkload0
*543 fanout19
*544 fanout20
*545 fanout21
*546 hold1
*547 hold10
*548 hold11
*549 hold12
*550 hold13
*551 hold2
*552 hold3
*553 hold4
*554 hold5
*555 hold6
*556 hold7
*557 hold8
*558 hold9
*559 input1
*560 input2
*561 output10
*562 output11
*563 output12
*564 output13
*565 output14
*566 output15
*567 output16
*568 output17
*569 output18
*570 output3
*571 output4
*572 output5
*573 output6
*574 output7
*575 output8
*576 output9

*PORTS
adc_out[0] O
adc_out[1] O
adc_out[2] O
adc_out[3] O
adc_out[4] O
adc_out[5] O
adc_out[6] O
adc_out[7] O
clk I
comp I
dac_in[0] O
dac_in[1] O
dac_in[2] O
dac_in[3] O
dac_in[4] O
dac_in[5] O
dac_in[6] O
dac_in[7] O
rst_n I

*D_NET *3 0.00129183
*CONN
*P adc_out[0] O
*I *570:X O *D sky130_fd_sc_hd__buf_2
*CAP
1 adc_out[0] 0.000481425
2 *570:X 0.000164488
3 *3:10 0.000645913
4 adc_out[0] adc_out[1] 0
*RES
1 *570:X *3:10 49.1382 
2 *3:10 adc_out[0] 1.8368 
*END

*D_NET *4 0.00241987
*CONN
*P adc_out[1] O
*I *571:X O *D sky130_fd_sc_hd__buf_2
*CAP
1 adc_out[1] 0.000363563
2 *571:X 0.000474171
3 *4:10 0.000837733
4 adc_out[1] adc_out[2] 0
5 *4:10 *571:A 0.000361027
6 *4:10 *102:10 0.000143655
7 *4:10 *103:25 0.000141246
8 *4:10 *109:12 9.84794e-05
9 adc_out[0] adc_out[1] 0
*RES
1 *571:X *4:10 48.9475 
2 *4:10 adc_out[1] 9.4112 
*END

*D_NET *5 0.000825483
*CONN
*P adc_out[2] O
*I *572:X O *D sky130_fd_sc_hd__buf_2
*CAP
1 adc_out[2] 0.000412741
2 *572:X 0.000412741
3 adc_out[2] *572:A 0
4 adc_out[2] *6:12 0
5 adc_out[1] adc_out[2] 0
*RES
1 *572:X adc_out[2] 48.2835 
*END

*D_NET *6 0.00123051
*CONN
*P adc_out[3] O
*I *573:X O *D sky130_fd_sc_hd__buf_2
*CAP
1 adc_out[3] 7.34479e-05
2 *573:X 0.000503769
3 *6:12 0.000577216
4 *6:12 adc_out[4] 0
5 *6:12 *554:A 0
6 *6:12 *7:10 7.60729e-05
7 adc_out[2] *6:12 0
*RES
1 *573:X *6:12 49.735 
2 *6:12 adc_out[3] 0.281867 
*END

*D_NET *7 0.00176399
*CONN
*P adc_out[4] O
*I *574:X O *D sky130_fd_sc_hd__buf_2
*CAP
1 adc_out[4] 0.000499657
2 *574:X 0.000291632
3 *7:10 0.000791289
4 adc_out[4] adc_out[5] 0
5 *7:10 *554:A 0
6 *7:10 *8:8 7.46212e-05
7 *7:10 *113:18 3.07161e-05
8 *6:12 adc_out[4] 0
9 *6:12 *7:10 7.60729e-05
*RES
1 *574:X *7:10 43.8725 
2 *7:10 adc_out[4] 9.75093 
*END

*D_NET *8 0.00204458
*CONN
*P adc_out[5] O
*I *575:X O *D sky130_fd_sc_hd__buf_2
*CAP
1 adc_out[5] 0.000520351
2 *575:X 0.000253935
3 *8:8 0.000774286
4 adc_out[5] adc_out[6] 0
5 *8:8 adc_out[7] 0
6 *8:8 *561:A 0.00034089
7 *8:8 *113:18 8.05011e-05
8 adc_out[4] adc_out[5] 0
9 *7:10 *8:8 7.46212e-05
*RES
1 *575:X *8:8 44.6596 
2 *8:8 adc_out[5] 9.8368 
*END

*D_NET *9 0.00168089
*CONN
*P adc_out[6] O
*I *576:X O *D sky130_fd_sc_hd__buf_2
*CAP
1 adc_out[6] 0.000608041
2 *576:X 0.000197732
3 *9:10 0.000805774
4 adc_out[6] adc_out[7] 0
5 *9:10 adc_out[7] 0
6 *9:10 *514:S 0
7 *9:10 *552:A 2.84912e-05
8 *9:10 *561:A 4.08537e-05
9 adc_out[5] adc_out[6] 0
*RES
1 *576:X *9:10 49.8425 
2 *9:10 adc_out[6] 2.0944 
*END

*D_NET *10 0.0026803
*CONN
*P adc_out[7] O
*I *561:X O *D sky130_fd_sc_hd__buf_2
*CAP
1 adc_out[7] 0.00113457
2 *561:X 0.000205585
3 *10:8 0.00134015
4 adc_out[7] *552:A 0
5 adc_out[7] *561:A 0
6 adc_out[7] *20:8 0
7 adc_out[6] adc_out[7] 0
8 *8:8 adc_out[7] 0
9 *9:10 adc_out[7] 0
*RES
1 *561:X *10:8 40.5271 
2 *10:8 adc_out[7] 25.0959 
*END

*D_NET *11 0.0146668
*CONN
*P clk I
*I *539:A I *D sky130_fd_sc_hd__clkbuf_16
*CAP
1 clk 0.00118386
2 *539:A 0
3 *11:17 0.00257099
4 *11:15 0.00353526
5 *11:11 0.00214813
6 *11:11 *12:13 0
7 *11:15 *12:13 9.84851e-05
8 *11:15 *81:6 0.00248104
9 *11:17 *491:C_N 0.000193739
10 *11:17 *491:D_N 5.50106e-05
11 *11:17 *492:A1 0.000225393
12 *11:17 *540:A 0.000400716
13 *11:17 *61:6 0.00117402
14 *11:17 *81:6 0.000600116
*RES
1 clk *11:11 41.9437 
2 *11:11 *11:15 29.8182 
3 *11:15 *11:17 54.2196 
4 *11:17 *539:A 23 
*END

*D_NET *12 0.000923344
*CONN
*P comp I
*I *559:A I *D sky130_fd_sc_hd__clkbuf_2
*CAP
1 comp 0.000412429
2 *559:A 0
3 *12:13 0.000412429
4 *11:11 *12:13 0
5 *11:15 *12:13 9.84851e-05
*RES
1 comp *12:13 28.4436 
2 *12:13 *559:A 23 
*END

*D_NET *13 0.00114555
*CONN
*P dac_in[0] O
*I *562:X O *D sky130_fd_sc_hd__buf_2
*CAP
1 dac_in[0] 4.49146e-05
2 *562:X 0.000527861
3 *13:8 0.000572776
*RES
1 *562:X *13:8 49.5896 
2 *13:8 dac_in[0] 1.02536 
*END

*D_NET *14 0.00137492
*CONN
*P dac_in[1] O
*I *563:X O *D sky130_fd_sc_hd__buf_2
*CAP
1 dac_in[1] 0.000559043
2 *563:X 9.9245e-05
3 *14:8 0.000658288
4 *14:8 *83:14 5.83407e-05
*RES
1 *563:X *14:8 39.5743 
2 *14:8 dac_in[1] 12.1386 
*END

*D_NET *15 0.00114555
*CONN
*P dac_in[2] O
*I *564:X O *D sky130_fd_sc_hd__buf_2
*CAP
1 dac_in[2] 4.49146e-05
2 *564:X 0.000527861
3 *15:8 0.000572776
*RES
1 *564:X *15:8 49.5896 
2 *15:8 dac_in[2] 1.02536 
*END

*D_NET *16 0.00114555
*CONN
*P dac_in[3] O
*I *565:X O *D sky130_fd_sc_hd__buf_2
*CAP
1 dac_in[3] 4.49146e-05
2 *565:X 0.000527861
3 *16:8 0.000572776
*RES
1 *565:X *16:8 49.5896 
2 *16:8 dac_in[3] 1.02536 
*END

*D_NET *17 0.00144321
*CONN
*P dac_in[4] O
*I *566:X O *D sky130_fd_sc_hd__buf_2
*CAP
1 dac_in[4] 0.000600781
2 *566:X 0.000120822
3 *17:8 0.000721603
*RES
1 *566:X *17:8 39.5743 
2 *17:8 dac_in[4] 13.0914 
*END

*D_NET *18 0.00114555
*CONN
*P dac_in[5] O
*I *567:X O *D sky130_fd_sc_hd__buf_2
*CAP
1 dac_in[5] 4.49146e-05
2 *567:X 0.000527861
3 *18:8 0.000572776
*RES
1 *567:X *18:8 49.5896 
2 *18:8 dac_in[5] 1.02536 
*END

*D_NET *19 0.00153197
*CONN
*P dac_in[6] O
*I *568:X O *D sky130_fd_sc_hd__buf_2
*CAP
1 dac_in[6] 0.000559043
2 *568:X 0.000206942
3 *19:8 0.000765985
*RES
1 *568:X *19:8 40.5271 
2 *19:8 dac_in[6] 12.1386 
*END

*D_NET *20 0.00118729
*CONN
*P dac_in[7] O
*I *569:X O *D sky130_fd_sc_hd__buf_2
*CAP
1 dac_in[7] 6.5784e-05
2 *569:X 0.000527861
3 *20:8 0.000593645
4 adc_out[7] *20:8 0
*RES
1 *569:X *20:8 49.5896 
2 *20:8 dac_in[7] 1.50179 
*END

*D_NET *21 0.00112127
*CONN
*P rst_n I
*I *560:A I *D sky130_fd_sc_hd__clkbuf_2
*CAP
1 rst_n 0.000560635
2 *560:A 0
3 *21:13 0.000560635
*RES
1 rst_n *21:13 31.2608 
2 *21:13 *560:A 23 
*END

*D_NET *22 0.000411955
*CONN
*I *519:D I *D sky130_fd_sc_hd__dfxtp_1
*I *478:Y O *D sky130_fd_sc_hd__nor2_1
*CAP
1 *519:D 1.0032e-05
2 *478:Y 0.000150493
3 *22:10 0.000160525
4 *519:D *75:18 7.10068e-06
5 *22:10 *478:B 1.24376e-05
6 *22:10 *54:6 1.57571e-05
7 *22:10 *93:37 5.561e-05
8 *22:10 *94:79 0
*RES
1 *478:Y *22:10 40.5271 
2 *22:10 *519:D 38.1916 
*END

*D_NET *23 0.000499385
*CONN
*I *520:D I *D sky130_fd_sc_hd__dfxtp_1
*I *480:Y O *D sky130_fd_sc_hd__a21oi_1
*CAP
1 *520:D 4.29071e-05
2 *480:Y 0.000118151
3 *23:8 0.000161059
4 *23:8 *78:10 5.23524e-05
5 *23:8 *78:25 3.68713e-05
6 *23:8 *91:93 1.01436e-05
7 *23:8 *93:99 3.55007e-05
8 *23:8 *94:90 4.23996e-05
*RES
1 *480:Y *23:8 40.9621 
2 *23:8 *520:D 38.668 
*END

*D_NET *24 0.000383824
*CONN
*I *521:D I *D sky130_fd_sc_hd__dfxtp_2
*I *483:X O *D sky130_fd_sc_hd__and4_1
*CAP
1 *521:D 5.59231e-05
2 *483:X 5.59231e-05
3 *521:D *51:20 0.00016727
4 *521:D *79:12 8.38361e-05
5 *521:D *80:25 5.37348e-06
6 *521:D *91:81 1.54983e-05
*RES
1 *483:X *521:D 47.8902 
*END

*D_NET *25 0.00098396
*CONN
*I *522:D I *D sky130_fd_sc_hd__dfxtp_1
*I *486:Y O *D sky130_fd_sc_hd__a21oi_1
*CAP
1 *522:D 8.45249e-06
2 *486:Y 0.000341226
3 *25:10 0.000349678
4 *522:D *522:CLK 1.64354e-05
5 *25:10 *489:A3 9.84851e-05
6 *25:10 *26:10 0
7 *25:10 *75:39 0.000169683
8 *25:10 *84:33 0
*RES
1 *486:Y *25:10 43.8207 
2 *25:10 *522:D 38.1916 
*END

*D_NET *26 0.000817596
*CONN
*I *523:D I *D sky130_fd_sc_hd__dfxtp_1
*I *490:Y O *D sky130_fd_sc_hd__a21oi_1
*CAP
1 *523:D 6.82756e-05
2 *490:Y 0.000280051
3 *26:10 0.000348326
4 *523:D *83:33 5.65198e-05
5 *26:10 *490:A1 5.41288e-05
6 *26:10 *490:B1 1.02949e-05
7 *26:10 *83:10 0
8 *25:10 *26:10 0
*RES
1 *490:Y *26:10 42.3086 
2 *26:10 *523:D 39.6209 
*END

*D_NET *27 0.00045537
*CONN
*I *524:D I *D sky130_fd_sc_hd__dfxtp_1
*I *493:Y O *D sky130_fd_sc_hd__a21oi_1
*CAP
1 *524:D 6.43668e-05
2 *493:Y 0.000122661
3 *27:8 0.000187028
4 *524:D *84:23 8.13141e-05
5 *27:8 *28:8 0
6 *27:8 *46:10 0
7 *27:8 *83:10 0
*RES
1 *493:Y *27:8 40.2579 
2 *27:8 *524:D 39.6209 
*END

*D_NET *28 0.000763734
*CONN
*I *525:D I *D sky130_fd_sc_hd__dfxtp_1
*I *496:Y O *D sky130_fd_sc_hd__a21oi_1
*CAP
1 *525:D 0.000129281
2 *496:Y 0.000125981
3 *28:8 0.000255262
4 *525:D *525:CLK 8.27997e-05
5 *525:D *75:93 2.02872e-05
6 *525:D *75:108 1.14154e-05
7 *28:8 *52:46 0
8 *28:8 *75:108 0.000138708
9 *27:8 *28:8 0
*RES
1 *496:Y *28:8 40.61 
2 *28:8 *525:D 40.263 
*END

*D_NET *29 0.00132705
*CONN
*I *526:D I *D sky130_fd_sc_hd__dfxtp_1
*I *499:Y O *D sky130_fd_sc_hd__a21oi_1
*CAP
1 *526:D 0.000173564
2 *499:Y 0.000130118
3 *29:8 0.000303682
4 *526:D *52:102 5.3304e-05
5 *526:D *75:91 0.000407054
6 *29:8 *565:A 6.7177e-06
7 *29:8 *52:27 1.01436e-05
8 *29:8 *52:83 5.94125e-05
9 *29:8 *52:102 0.000139647
10 *29:8 *86:10 4.3407e-05
11 *29:8 *92:16 0
*RES
1 *499:Y *29:8 40.9621 
2 *29:8 *526:D 42.4795 
*END

*D_NET *30 0.000552567
*CONN
*I *527:D I *D sky130_fd_sc_hd__dfxtp_1
*I *502:Y O *D sky130_fd_sc_hd__a21oi_1
*CAP
1 *527:D 4.9247e-05
2 *502:Y 0.00017482
3 *30:8 0.000224067
4 *527:D *86:21 0.000104433
5 *30:8 *502:A1 0
6 *30:8 *68:8 0
*RES
1 *502:Y *30:8 40.9621 
2 *30:8 *527:D 39.1445 
*END

*D_NET *31 0.000619976
*CONN
*I *528:D I *D sky130_fd_sc_hd__dfxtp_1
*I *505:Y O *D sky130_fd_sc_hd__a21oi_1
*CAP
1 *528:D 0.000113007
2 *505:Y 0.000113007
3 *528:D *505:A1 0.000211651
4 *528:D *505:A2 5.3304e-05
5 *528:D *528:CLK 0.000129006
*RES
1 *505:Y *528:D 49.5163 
*END

*D_NET *32 0.000295303
*CONN
*I *529:D I *D sky130_fd_sc_hd__dfxtp_1
*I *507:X O *D sky130_fd_sc_hd__mux2_1
*CAP
1 *529:D 1.13183e-05
2 *507:X 0.000128116
3 *32:8 0.000139434
4 *529:D *76:99 1.64354e-05
5 *32:8 *507:S 0
*RES
1 *507:X *32:8 40.2579 
2 *32:8 *529:D 38.1916 
*END

*D_NET *33 0.000364759
*CONN
*I *530:D I *D sky130_fd_sc_hd__dfxtp_1
*I *508:X O *D sky130_fd_sc_hd__mux2_1
*CAP
1 *530:D 5.85432e-05
2 *508:X 6.56791e-05
3 *33:8 0.000124222
4 *33:8 *76:107 0.000116314
*RES
1 *508:X *33:8 39.5536 
2 *33:8 *530:D 38.9373 
*END

*D_NET *34 0.000432354
*CONN
*I *531:D I *D sky130_fd_sc_hd__dfxtp_1
*I *509:X O *D sky130_fd_sc_hd__mux2_1
*CAP
1 *531:D 6.7202e-06
2 *509:X 0.000195628
3 *34:10 0.000202348
4 *531:D *508:S 4.9054e-06
5 *531:D *111:14 1.74843e-05
6 *34:10 *509:A0 5.26733e-06
*RES
1 *509:X *34:10 40.8793 
2 *34:10 *531:D 38.1916 
*END

*D_NET *35 0.000564658
*CONN
*I *550:A I *D sky130_fd_sc_hd__dlygate4sd3_1
*I *510:X O *D sky130_fd_sc_hd__mux2_1
*CAP
1 *550:A 0.000188444
2 *510:X 0.000188444
3 *550:A *71:38 0.00018777
*RES
1 *510:X *550:A 49.9771 
*END

*D_NET *36 0.000779957
*CONN
*I *556:A I *D sky130_fd_sc_hd__dlygate4sd3_1
*I *511:X O *D sky130_fd_sc_hd__mux2_1
*CAP
1 *556:A 0
2 *511:X 0.000339888
3 *36:10 0.000339888
4 *36:10 *511:A0 0.00010018
5 *36:10 *549:A 0
6 *36:10 *101:8 0
*RES
1 *511:X *36:10 43.8207 
2 *36:10 *556:A 38 
*END

*D_NET *37 0.000869951
*CONN
*I *551:A I *D sky130_fd_sc_hd__dlygate4sd3_1
*I *512:X O *D sky130_fd_sc_hd__mux2_1
*CAP
1 *551:A 9.29864e-05
2 *512:X 0.000174646
3 *37:10 0.000267633
4 *551:A *71:44 2.93747e-05
5 *37:10 *71:76 0.000139647
6 *37:10 *88:27 0.000140259
7 *37:10 *96:8 2.54046e-05
8 *37:10 *112:10 0
*RES
1 *512:X *37:10 41.48 
2 *37:10 *551:A 39.5743 
*END

*D_NET *38 0.00143818
*CONN
*I *547:A I *D sky130_fd_sc_hd__dlygate4sd3_1
*I *513:X O *D sky130_fd_sc_hd__mux2_1
*CAP
1 *547:A 0
2 *513:X 0.000460402
3 *38:10 0.000460402
4 *38:10 *513:A0 0.000158004
5 *38:10 *513:S 3.70187e-05
6 *38:10 *568:A 0.00026757
7 *38:10 *86:21 5.47808e-05
8 *38:10 *86:27 0
9 *38:10 *105:8 0
*RES
1 *513:X *38:10 47.6114 
2 *38:10 *547:A 38 
*END

*D_NET *39 0.000119194
*CONN
*I *553:A I *D sky130_fd_sc_hd__dlygate4sd3_1
*I *514:X O *D sky130_fd_sc_hd__mux2_1
*CAP
1 *553:A 5.9597e-05
2 *514:X 5.9597e-05
*RES
1 *514:X *553:A 47.1186 
*END

*D_NET *40 0.00027117
*CONN
*I *537:D I *D sky130_fd_sc_hd__dfxtp_1
*I *516:X O *D sky130_fd_sc_hd__o21a_1
*CAP
1 *537:D 7.17495e-06
2 *516:X 6.86192e-05
3 *40:8 7.57941e-05
4 *537:D *76:36 1.64354e-05
5 *537:D *88:21 1.64354e-05
6 *40:8 *567:A 6.7177e-06
7 *40:8 *76:20 5.45887e-05
8 *40:8 *88:25 2.54046e-05
*RES
1 *516:X *40:8 39.5536 
2 *40:8 *537:D 38.1916 
*END

*D_NET *41 0.000682651
*CONN
*I *538:D I *D sky130_fd_sc_hd__dfxtp_1
*I *518:X O *D sky130_fd_sc_hd__a311o_1
*CAP
1 *538:D 1.55139e-05
2 *518:X 0.000233672
3 *41:8 0.000249186
4 *538:D *76:14 5.92579e-05
5 *538:D *87:46 5.92579e-05
6 *41:8 *44:14 0
7 *41:8 *50:29 5.56203e-05
8 *41:8 *76:14 0
9 *41:8 *88:25 1.01436e-05
*RES
1 *518:X *41:8 42.3707 
2 *41:8 *538:D 38.668 
*END

*D_NET *42 0.00105419
*CONN
*I *518:A1 I *D sky130_fd_sc_hd__a311o_1
*I *467:Y O *D sky130_fd_sc_hd__inv_2
*CAP
1 *518:A1 0
2 *467:Y 0.000269442
3 *42:10 0.000269442
4 *42:10 *44:14 0.000166513
5 *42:10 *50:10 0.000141052
6 *42:10 *50:29 0.00020774
*RES
1 *467:Y *42:10 43.2614 
2 *42:10 *518:A1 38 
*END

*D_NET *43 0.00106414
*CONN
*I *518:C1 I *D sky130_fd_sc_hd__a311o_1
*I *506:A I *D sky130_fd_sc_hd__or2_4
*I *468:Y O *D sky130_fd_sc_hd__inv_2
*CAP
1 *518:C1 0
2 *506:A 0
3 *468:Y 3.28682e-05
4 *43:16 0.000377346
5 *43:6 0.000410214
6 *43:6 *85:22 5.67058e-05
7 *43:6 *85:32 2.18409e-05
8 *43:6 *92:90 5.67058e-05
9 *43:16 *506:B 9.01041e-05
10 *43:16 *44:14 1.83564e-05
11 *43:16 *91:106 0
*RES
1 *468:Y *43:6 24.0979 
2 *43:6 *43:16 36.9393 
3 *43:16 *506:A 23 
4 *43:6 *518:C1 23 
*END

*D_NET *44 0.00264925
*CONN
*I *515:A0 I *D sky130_fd_sc_hd__mux2_1
*I *518:A2 I *D sky130_fd_sc_hd__a311o_1
*I *469:Y O *D sky130_fd_sc_hd__inv_2
*CAP
1 *515:A0 0
2 *518:A2 0
3 *469:Y 0.000178837
4 *44:27 0.000388277
5 *44:14 0.000334259
6 *44:6 0.000901373
7 *44:6 *87:46 1.62778e-05
8 *44:14 *50:16 0.00016419
9 *44:14 *50:29 6.7177e-06
10 *44:14 *73:8 5.41385e-05
11 *44:14 *76:20 6.48049e-05
12 *44:14 *85:32 0.00010018
13 *44:14 *88:25 0
14 *44:14 *91:106 0
15 *44:14 *92:90 4.73585e-05
16 *44:27 *76:14 0.000123517
17 *44:27 *87:46 2.81406e-06
18 *44:27 *88:25 8.16356e-05
19 *41:8 *44:14 0
20 *42:10 *44:14 0.000166513
21 *43:16 *44:14 1.83564e-05
*RES
1 *469:Y *44:6 25.0507 
2 *44:6 *44:14 38.2857 
3 *44:14 *518:A2 23 
4 *44:6 *44:27 36.2143 
5 *44:27 *515:A0 23 
*END

*D_NET *45 0.000449191
*CONN
*I *492:A1 I *D sky130_fd_sc_hd__mux2_1
*I *470:Y O *D sky130_fd_sc_hd__inv_2
*CAP
1 *492:A1 0.000111899
2 *470:Y 0.000111899
3 *11:17 *492:A1 0.000225393
*RES
1 *470:Y *492:A1 48.5271 
*END

*D_NET *46 0.000715621
*CONN
*I *495:A1 I *D sky130_fd_sc_hd__mux2_1
*I *471:Y O *D sky130_fd_sc_hd__inv_2
*CAP
1 *495:A1 2.70317e-05
2 *471:Y 0.000248459
3 *46:10 0.000275491
4 *495:A1 *493:B1 3.22879e-05
5 *46:10 *496:A1 7.4416e-05
6 *46:10 *496:B1 9.8971e-06
7 *46:10 *52:46 4.3407e-05
8 *46:10 *61:12 4.6318e-06
9 *27:8 *46:10 0
*RES
1 *471:Y *46:10 41.9564 
2 *46:10 *495:A1 38.6214 
*END

*D_NET *47 0.000905308
*CONN
*I *498:A1 I *D sky130_fd_sc_hd__mux2_1
*I *472:Y O *D sky130_fd_sc_hd__inv_2
*CAP
1 *498:A1 0
2 *472:Y 0.000220591
3 *47:6 0.000220591
4 *47:6 *499:A2 5.67058e-05
5 *47:6 *499:B1 5.3304e-05
6 *47:6 *52:35 0.000354116
*RES
1 *472:Y *47:6 28.3857 
2 *47:6 *498:A1 23 
*END

*D_NET *48 0.00047298
*CONN
*I *501:A1 I *D sky130_fd_sc_hd__mux2_1
*I *473:Y O *D sky130_fd_sc_hd__inv_2
*CAP
1 *501:A1 0.000147007
2 *473:Y 0.000147007
3 *501:A1 *80:33 0.000178966
*RES
1 *473:Y *501:A1 48.5271 
*END

*D_NET *49 0.00063083
*CONN
*I *504:A1 I *D sky130_fd_sc_hd__mux2_1
*I *474:Y O *D sky130_fd_sc_hd__inv_2
*CAP
1 *504:A1 8.30929e-05
2 *474:Y 8.30929e-05
3 *504:A1 *504:S 5.67058e-05
4 *504:A1 *69:14 7.88926e-05
5 *504:A1 *86:21 0.00031495
6 *504:A1 *87:40 1.40958e-05
*RES
1 *474:Y *504:A1 49.48 
*END

*D_NET *50 0.00436167
*CONN
*I *517:A_N I *D sky130_fd_sc_hd__and2b_1
*I *518:A3 I *D sky130_fd_sc_hd__a311o_1
*I *516:A1 I *D sky130_fd_sc_hd__o21a_1
*I *475:Y O *D sky130_fd_sc_hd__nor3_1
*CAP
1 *517:A_N 2.53444e-05
2 *518:A3 0
3 *516:A1 0
4 *475:Y 0.00069874
5 *50:29 0.000238434
6 *50:16 0.000178922
7 *50:10 0.00109075
8 *517:A_N *73:8 0.00014196
9 *517:A_N *85:32 8.1796e-05
10 *50:10 *540:A 0.000374387
11 *50:10 *541:A 0.000320562
12 *50:10 *74:6 0
13 *50:16 *76:20 3.96156e-05
14 *50:16 *92:90 0.000456486
15 *50:29 *541:A 0.000139357
16 *41:8 *50:29 5.56203e-05
17 *42:10 *50:10 0.000141052
18 *42:10 *50:29 0.00020774
19 *44:14 *50:16 0.00016419
20 *44:14 *50:29 6.7177e-06
*RES
1 *475:Y *50:10 35.6979 
2 *50:10 *50:16 36.1314 
3 *50:16 *516:A1 23 
4 *50:10 *50:29 35.1371 
5 *50:29 *518:A3 23 
6 *50:29 *517:A_N 24.5743 
*END

*D_NET *51 0.00630413
*CONN
*I *506:B I *D sky130_fd_sc_hd__or2_4
*I *477:B I *D sky130_fd_sc_hd__nand2_2
*I *483:B I *D sky130_fd_sc_hd__and4_1
*I *476:X O *D sky130_fd_sc_hd__or4b_2
*CAP
1 *506:B 0.000991342
2 *477:B 0
3 *483:B 0
4 *476:X 0
5 *51:20 0.000819847
6 *51:10 0.00131372
7 *51:4 0.00148522
8 *506:B *91:93 4.5051e-05
9 *506:B *91:106 0.000492341
10 *51:10 *77:20 0
11 *51:10 *91:93 6.17437e-06
12 *51:10 *92:39 5.50106e-05
13 *51:10 *92:56 0.000204626
14 *51:20 *483:C 3.22879e-05
15 *51:20 *77:20 0
16 *51:20 *79:12 0.000111993
17 *51:20 *79:92 0
18 *51:20 *80:25 4.45594e-05
19 *51:20 *93:23 0.00044458
20 *51:20 *94:90 0
21 *521:D *51:20 0.00016727
22 *43:16 *506:B 9.01041e-05
*RES
1 *476:X *51:4 23 
2 *51:4 *51:10 21.7114 
3 *51:10 *51:20 28.8579 
4 *51:20 *483:B 23 
5 *51:10 *477:B 38 
6 *51:4 *506:B 38.4114 
*END

*D_NET *52 0.015924
*CONN
*I *505:B1 I *D sky130_fd_sc_hd__a21oi_1
*I *502:B1 I *D sky130_fd_sc_hd__a21oi_1
*I *499:B1 I *D sky130_fd_sc_hd__a21oi_1
*I *493:B1 I *D sky130_fd_sc_hd__a21oi_1
*I *490:B1 I *D sky130_fd_sc_hd__a21oi_1
*I *486:B1 I *D sky130_fd_sc_hd__a21oi_1
*I *496:B1 I *D sky130_fd_sc_hd__a21oi_1
*I *478:B I *D sky130_fd_sc_hd__nor2_1
*I *477:Y O *D sky130_fd_sc_hd__nand2_2
*CAP
1 *505:B1 0.000253627
2 *502:B1 0
3 *499:B1 3.80122e-05
4 *493:B1 0.000266403
5 *490:B1 0.000382466
6 *486:B1 3.49617e-05
7 *496:B1 5.65422e-05
8 *478:B 0.000319544
9 *477:Y 0.000834763
10 *52:102 0.000896331
11 *52:83 0.000706912
12 *52:52 0.000705518
13 *52:46 0.000704136
14 *52:35 0.00100383
15 *52:27 0.00122956
16 *52:12 0.000725266
17 *52:10 0.000834763
18 *478:B *481:B 5.50049e-05
19 *478:B *483:C 4.19743e-05
20 *478:B *54:6 7.73389e-05
21 *478:B *79:41 1.12487e-05
22 *478:B *91:81 5.21127e-05
23 *478:B *93:50 0
24 *478:B *94:67 0.000147206
25 *478:B *94:79 3.18198e-05
26 *486:B1 *489:B1 5.94125e-05
27 *486:B1 *56:10 6.07611e-06
28 *486:B1 *84:33 1.4471e-05
29 *490:B1 *489:A1 0.000184397
30 *490:B1 *490:A1 4.75937e-05
31 *490:B1 *490:A2 3.22879e-05
32 *493:B1 *493:A1 6.9805e-05
33 *493:B1 *493:A2 5.50049e-05
34 *493:B1 *81:37 0.000140259
35 *496:B1 *496:A1 2.4754e-05
36 *496:B1 *496:A2 5.50049e-05
37 *496:B1 *84:23 0.000183733
38 *505:B1 *502:A1 0.000301719
39 *52:10 *77:14 0.00104541
40 *52:10 *94:8 5.3304e-05
41 *52:27 *65:12 0.000136486
42 *52:27 *79:41 0.000138185
43 *52:27 *79:52 9.27917e-05
44 *52:27 *79:67 9.95114e-05
45 *52:27 *91:81 0.000160589
46 *52:27 *91:115 0.000190848
47 *52:27 *92:16 0
48 *52:35 *496:A1 0.000506454
49 *52:35 *496:A2 4.08664e-05
50 *52:35 *498:S 7.88926e-05
51 *52:35 *499:A2 0
52 *52:35 *84:23 0.000181131
53 *52:46 *61:12 0
54 *52:46 *64:8 0.000163352
55 *52:46 *85:10 1.12487e-05
56 *52:46 *85:14 5.65594e-05
57 *52:52 *489:B1 0.00021289
58 *52:52 *492:S 0.000141879
59 *52:52 *61:12 0
60 *52:52 *81:19 0
61 *52:52 *81:30 3.37207e-05
62 *52:52 *84:33 2.1199e-05
63 *52:52 *85:14 0.000379676
64 *52:83 *65:12 5.15096e-05
65 *52:102 *502:A1 9.84794e-05
66 *52:102 *502:A2 0.000185434
67 *52:102 *75:91 0.000481501
68 *495:A1 *493:B1 3.22879e-05
69 *526:D *52:102 5.3304e-05
70 *22:10 *478:B 1.24376e-05
71 *26:10 *490:B1 1.02949e-05
72 *28:8 *52:46 0
73 *29:8 *52:27 1.01436e-05
74 *29:8 *52:83 5.94125e-05
75 *29:8 *52:102 0.000139647
76 *46:10 *496:B1 9.8971e-06
77 *46:10 *52:46 4.3407e-05
78 *47:6 *499:B1 5.3304e-05
79 *47:6 *52:35 0.000354116
*RES
1 *477:Y *52:10 36.6507 
2 *52:10 *52:12 15 
3 *52:12 *478:B 44.4629 
4 *52:12 *52:27 11.4136 
5 *52:27 *52:35 33.1664 
6 *52:35 *496:B1 25.0507 
7 *52:35 *52:46 19.0186 
8 *52:46 *52:52 7.95429 
9 *52:52 *486:B1 38.8493 
10 *52:52 *490:B1 43.8829 
11 *52:46 *493:B1 43.3857 
12 *52:27 *52:83 0.849286 
13 *52:83 *499:B1 38.6214 
14 *52:83 *52:102 28.1743 
15 *52:102 *502:B1 23 
16 *52:102 *505:B1 28.8621 
*END

*D_NET *53 0.000629713
*CONN
*I *480:B1 I *D sky130_fd_sc_hd__a21oi_1
*I *479:Y O *D sky130_fd_sc_hd__o21ai_1
*CAP
1 *480:B1 0
2 *479:Y 0.000189805
3 *53:10 0.000189805
4 *53:10 *479:A2 8.83751e-05
5 *53:10 *479:B1 7.53384e-06
6 *53:10 *93:8 7.44354e-05
7 *53:10 *93:123 7.9759e-05
*RES
1 *479:Y *53:10 27.5986 
2 *53:10 *480:B1 23 
*END

*D_NET *54 0.00524746
*CONN
*I *483:C I *D sky130_fd_sc_hd__and4_1
*I *487:A2 I *D sky130_fd_sc_hd__o21ai_1
*I *485:B I *D sky130_fd_sc_hd__nand2_1
*I *489:A3 I *D sky130_fd_sc_hd__o31a_1